# generated using pymatgen
data_Zn
_symmetry_space_group_name_H-M   'P 1'
_cell_length_a   33.29300000
_cell_length_b   33.27100000
_cell_length_c   33.27900000
_cell_angle_alpha   89.88000000
_cell_angle_beta   89.95000000
_cell_angle_gamma   89.79000000
_symmetry_Int_Tables_number   1
_chemical_formula_structural   Zn
_chemical_formula_sum   Zn96
_cell_volume   36862.51996038
_cell_formula_units_Z   96
loop_
 _symmetry_equiv_pos_site_id
 _symmetry_equiv_pos_as_xyz
  1  'x, y, z'
loop_
 _atom_site_type_symbol
 _atom_site_label
 _atom_site_symmetry_multiplicity
 _atom_site_fract_x
 _atom_site_fract_y
 _atom_site_fract_z
 _atom_site_occupancy
  Zn  Zn0  1  0.00036000  0.37512000  0.24989000  1.0
  Zn  Zn2  1  0.00009000  0.25023000  0.12500000  1.0
  Zn  Zn3  1  0.24988000  0.37507000  0.00021000  1.0
  Zn  Zn12  1  0.25018000  0.49997000  0.12503000  1.0
  Zn  Zn53  1  0.37511000  0.24989000  0.00015000  1.0
  Zn  Zn69  1  0.25012000  0.00004000  0.12509000  1.0
  Zn  Zn104  1  0.25006000  0.00021000  0.37504000  1.0
  Zn  Zn107  1  0.00011000  0.25001000  0.37504000  1.0
  Zn  Zn109  1  0.25024000  0.12513000  0.49993000  1.0
  Zn  Zn137  1  0.12512000  0.49989000  0.25010000  1.0
  Zn  Zn189  1  0.49985000  0.12514000  0.25025000  1.0
  Zn  Zn203  1  0.12501000  0.25032000  0.49999000  1.0
  Zn  Zn204  1  0.37505000  0.00035000  0.25001000  1.0
  Zn  Zn205  1  0.25011000  0.00005000  0.62508000  1.0
  Zn  Zn207  1  0.00001000  0.25020000  0.62499000  1.0
  Zn  Zn217  1  0.00031000  0.37513000  0.74987000  1.0
  Zn  Zn234  1  0.24980000  0.37508000  0.50023000  1.0
  Zn  Zn241  1  0.37500000  0.24989000  0.50017000  1.0
  Zn  Zn274  1  0.50000000  0.25020000  0.62502000  1.0
  Zn  Zn313  1  0.25031000  0.12514000  0.99994000  1.0
  Zn  Zn314  1  0.00012000  0.25004000  0.87503000  1.0
  Zn  Zn340  1  0.25001000  0.00018000  0.87506000  1.0
  Zn  Zn358  1  0.12508000  0.49989000  0.75014000  1.0
  Zn  Zn401  1  0.49983000  0.12512000  0.75023000  1.0
  Zn  Zn408  1  0.12505000  0.25032000  0.99997000  1.0
  Zn  Zn409  1  0.37501000  0.00035000  0.75002000  1.0
  Zn  Zn413  1  0.00030000  0.87511000  0.24989000  1.0
  Zn  Zn420  1  0.00003000  0.75019000  0.12500000  1.0
  Zn  Zn445  1  0.24982000  0.87506000  0.00027000  1.0
  Zn  Zn479  1  0.37505000  0.74988000  0.00018000  1.0
  Zn  Zn510  1  0.12503000  0.75027000  0.00000000  1.0
  Zn  Zn511  1  0.37509000  0.50034000  0.25001000  1.0
  Zn  Zn514  1  0.00008000  0.74999000  0.37507000  1.0
  Zn  Zn519  1  0.25009000  0.50020000  0.37501000  1.0
  Zn  Zn546  1  0.25027000  0.62512000  0.49990000  1.0
  Zn  Zn564  1  0.12507000  0.99987000  0.25016000  1.0
  Zn  Zn603  1  0.49988000  0.62510000  0.25022000  1.0
  Zn  Zn613  1  0.12504000  0.75033000  0.49996000  1.0
  Zn  Zn614  1  0.25014000  0.50003000  0.62505000  1.0
  Zn  Zn617  1  0.00032000  0.87512000  0.74993000  1.0
  Zn  Zn620  1  0.24990000  0.87507000  0.50026000  1.0
  Zn  Zn627  1  0.00007000  0.75025000  0.62499000  1.0
  Zn  Zn652  1  0.37507000  0.50034000  0.74996000  1.0
  Zn  Zn668  1  0.37506000  0.74988000  0.50017000  1.0
  Zn  Zn726  1  0.25007000  0.50020000  0.87500000  1.0
  Zn  Zn748  1  0.25031000  0.62510000  0.99991000  1.0
  Zn  Zn749  1  0.00012000  0.75000000  0.87509000  1.0
  Zn  Zn784  1  0.12508000  0.99991000  0.75020000  1.0
  Zn  Zn802  1  0.49989000  0.62511000  0.75023000  1.0
  Zn  Zn817  1  0.75011000  0.00004000  0.12506000  1.0
  Zn  Zn819  1  0.74987000  0.37507000  0.00021000  1.0
  Zn  Zn820  1  0.50032000  0.37515000  0.24992000  1.0
  Zn  Zn844  1  0.50007000  0.25026000  0.12500000  1.0
  Zn  Zn885  1  0.87509000  0.24989000  0.00015000  1.0
  Zn  Zn902  1  0.62507000  0.25031000  0.00000000  1.0
  Zn  Zn919  1  0.87507000  0.00035000  0.24998000  1.0
  Zn  Zn922  1  0.75025000  0.12510000  0.49990000  1.0
  Zn  Zn925  1  0.50006000  0.25004000  0.37507000  1.0
  Zn  Zn927  1  0.75007000  0.00021000  0.37498000  1.0
  Zn  Zn968  1  0.99989000  0.12511000  0.25022000  1.0
  Zn  Zn972  1  0.62511000  0.49992000  0.25013000  1.0
  Zn  Zn1021  1  0.75009000  0.00001000  0.62508000  1.0
  Zn  Zn1047  1  0.50030000  0.37513000  0.74990000  1.0
  Zn  Zn1056  1  0.74979000  0.37508000  0.50020000  1.0
  Zn  Zn1073  1  0.87502000  0.24989000  0.50011000  1.0
  Zn  Zn1106  1  0.87502000  0.00032000  0.74996000  1.0
  Zn  Zn1122  1  0.62499000  0.25029000  0.50002000  1.0
  Zn  Zn1125  1  0.50014000  0.25004000  0.87506000  1.0
  Zn  Zn1128  1  0.75002000  0.00021000  0.87500000  1.0
  Zn  Zn1129  1  0.75033000  0.12511000  0.99991000  1.0
  Zn  Zn1173  1  0.99985000  0.12509000  0.75023000  1.0
  Zn  Zn1191  1  0.62509000  0.49989000  0.75011000  1.0
  Zn  Zn1224  1  0.74987000  0.87509000  0.00024000  1.0
  Zn  Zn1226  1  0.50001000  0.75025000  0.12503000  1.0
  Zn  Zn1239  1  0.50029000  0.87514000  0.24995000  1.0
  Zn  Zn1259  1  0.75014000  0.50000000  0.12503000  1.0
  Zn  Zn1276  1  0.87507000  0.50031000  0.24998000  1.0
  Zn  Zn1309  1  0.87504000  0.74988000  0.00015000  1.0
  Zn  Zn1326  1  0.62501000  0.75036000  0.00003000  1.0
  Zn  Zn1329  1  0.50009000  0.75002000  0.37507000  1.0
  Zn  Zn1332  1  0.75029000  0.62512000  0.49990000  1.0
  Zn  Zn1341  1  0.75007000  0.50023000  0.37501000  1.0
  Zn  Zn1377  1  0.99990000  0.62507000  0.25025000  1.0
  Zn  Zn1395  1  0.62505000  0.99993000  0.25016000  1.0
  Zn  Zn1428  1  0.62506000  0.75033000  0.49999000  1.0
  Zn  Zn1429  1  0.75009000  0.50000000  0.62502000  1.0
  Zn  Zn1432  1  0.74985000  0.87510000  0.50020000  1.0
  Zn  Zn1433  1  0.50027000  0.87515000  0.74990000  1.0
  Zn  Zn1454  1  0.50006000  0.75022000  0.62502000  1.0
  Zn  Zn1482  1  0.87505000  0.50034000  0.74996000  1.0
  Zn  Zn1499  1  0.87505000  0.74991000  0.50017000  1.0
  Zn  Zn1536  1  0.75024000  0.62513000  0.99991000  1.0
  Zn  Zn1537  1  0.75006000  0.50023000  0.87500000  1.0
  Zn  Zn1558  1  0.50011000  0.75003000  0.87509000  1.0
  Zn  Zn1567  1  0.99988000  0.62511000  0.75020000  1.0
  Zn  Zn1615  1  0.62506000  0.99994000  0.75017000  1.0
